tests/data/power_flow/automatic-tap-regulator/achievable-voltage-below-band-any/sym_output.json
{
  "version": "1.0",
  "type": "sym_output",
  "is_batch": false,
  "attributes": {},
  "data": {
    "node": [
      {
        "id": 1,
        "energized": 1,
        "u_pu": 0.9999999999987439,
        "u": 9999.999999987438,
        "u_angle": -1.2562019366085e-11,
        "p": 0.12624668577194373,
        "q": 3.5511277654844675e-09
      },
      {
        "id": 2,
        "energized": 1,
        "u_pu": 1.123595499998587,
        "u": 449.43819999943486,
        "u_angle": -2.6179939277534277,
        "p": 0,
        "q": 0
      }
    ],
    "transformer": [
      {
        "id": 4,
        "energized": 1,
        "loading": 1.2624668577194375e-06,
        "p_from": 0.12624668577194373,
        "q_from": 3.5511277654844675e-09,
        "i_from": 7.2888558014821395e-06,
        "s_from": 0.12624668577194376,
        "p_to": 0,
        "q_to": 0,
        "i_to": 0,
        "s_to": 0
      }
    ],
    "source": [
      {
        "id": 3,
        "energized": 1,
        "p": 0.12624668577194373,
        "q": 3.5511277654844675e-09,
        "i": 7.2888558014821395e-06,
        "s": 0.12624668577194376,
        "pf": 0.9999999999999998
      }
    ],
    "transformer_tap_regulator": [
      {
        "id": 8,
        "energized": 1,
        "tap_pos": -11
      }
    ]
  }
}
